15
	Energy:     -31.1862449
C         -5.18025        2.09471       -0.08542
C         -3.70971        2.42061        0.18417
H         -5.74783        3.02218        0.05812
C         -5.75995        1.03701        0.85169
H         -5.30664        1.78362       -1.12918
H         -3.54498        2.65660        1.24075
H         -3.45094        3.30991       -0.40330
C         -2.76835        1.31634       -0.20907
H         -5.32772        1.09005        1.85576
O         -5.57644       -0.27106        0.33246
H         -6.84027        1.18728        0.94499
O         -2.99028        0.11770       -0.16235
O         -1.56232        1.77897       -0.58587
H         -4.61591       -0.41356        0.19689
H         -1.04060        0.97461       -0.79101
